 90
       -119.19406195
 C          1.5446118836       -2.0513556412       -0.1034257845
 C          1.2066324595       -1.5281781390        1.1489644633
 C         -0.1103016475       -1.6468599338        1.6074267385
 C         -1.0917584802       -2.2308470997        0.8010001656
 C         -0.7764726923       -2.5904263470       -0.5134957214
 C          0.5479512466       -2.5344698214       -0.9567551321
 C          0.9196457825       -3.0730907938       -2.3210143135
 C          1.2551059189       -4.5645339776       -2.2216264955
 H          1.5310074805       -4.9582336787       -3.1977236770
 H          0.3966446864       -5.1214319914       -1.8526477995
 H          2.0805057052       -4.7330109710       -1.5338600630
 H          1.7697217698       -2.5323261117       -2.7353854115
 H          0.1020402841       -2.9550649853       -3.0290347793
 C         -1.8814204726       -2.8878736490       -1.5105855545
 N         -2.0924146007       -1.7410833687       -2.3780338821
 C         -2.7566037410       -0.6213812922       -1.9499970682
 N         -3.5644438927       -0.7313744680       -0.9011447171
 C         -4.2608639232        0.3306724860       -0.5104796361
 C         -4.1937668532        1.5457014929       -1.1706359971
 C         -3.3573099446        1.6775706503       -2.2774764587
 C         -2.6231637887        0.5759501114       -2.6674606668
 H         -1.9570159231        0.6230762923       -3.5179896101
 C         -3.2574700932        2.9842242661       -3.0019039815
 H         -4.2489079644        3.3434209703       -3.2733239926
 H         -2.7975124475        3.7306957647       -2.3557104793
 H         -2.6582706721        2.8882993277       -3.9044225829
 H         -4.7807424667        2.3833064725       -0.8279968513
 C         -5.1132203767        0.1619718789        0.7085246004
 H         -6.0335819933        0.7336678426        0.6173263193
 H         -4.5629543555        0.5318753965        1.5740886534
 H         -5.3470229882       -0.8870439003        0.8649224063
 H         -1.3426094197       -1.5424251869       -3.0243883128
 H         -1.6454451767       -3.7505015654       -2.1370676602
 H         -2.8297368196       -3.0747373433       -1.0178423587
 C         -2.4608358433       -2.5393204167        1.3485049714
 C         -2.6051663969       -4.0458368054        1.5836024928
 H         -3.5957260601       -4.2714855457        1.9727001334
 H         -2.4586400759       -4.6091181874        0.6653692390
 H         -1.8662497135       -4.3886142563        2.3064418650
 H         -3.2199124993       -2.1757999261        0.6569711811
 H         -2.6302223736       -2.0261633590        2.2884893612
 C         -0.5260259371       -1.0765333939        2.9487187648
 N         -1.5959552566       -0.1064558491        2.8249262860
 C         -1.6169424384        1.0118213704        2.0422108470
 N         -2.6242230555        1.8416937277        2.3343199913
 C         -2.7704781579        2.9529267443        1.6275394446
 C         -1.9155850698        3.2949245208        0.5909583687
 C         -0.8696827160        2.4361613443        0.2657690357
 C         -0.7161493180        1.2792254969        1.0077886821
 H          0.0841453757        0.6000701725        0.7766713219
 C          0.0543295800        2.7354261065       -0.8735429329
 H          0.1517855781        3.8090306081       -1.0212959480
 H         -0.3543619137        2.3043192734       -1.7880416612
 H          1.0405733420        2.3054075933       -0.7099916169
 H         -2.0631795548        4.2169835737        0.0484663522
 C         -3.9105212992        3.8456513634        2.0192633211
 H         -3.5304487572        4.7498069954        2.4938650242
 H         -4.5578408566        3.3278176273        2.7208429250
 H         -4.4846863290        4.1404535937        1.1434242199
 H         -2.2494396903       -0.0489402091        3.5910753608
 H          0.3274275509       -0.6311255786        3.4690660650
 H         -0.8949420548       -1.8882412085        3.5834938265
 C          2.2663168657       -0.8600095164        1.9947394776
 C          2.8847843112       -1.8398045463        2.9940899910
 H          2.1275944787       -2.2304294592        3.6701270475
 H          3.6545049653       -1.3445629275        3.5823879750
 H          3.3353662053       -2.6837659423        2.4756926078
 H          1.8413860966       -0.0111691934        2.5322586659
 H          3.0499638051       -0.4416178898        1.3658941040
 C          2.9717978333       -1.9527199201       -0.6016837316
 N          3.1557178158       -0.6848285119       -1.2932777765
 C          3.9472888757        0.3357206008       -0.8441193624
 N          3.5171744697        1.5579616134       -1.1612585207
 C          4.2532470345        2.6088717651       -0.8244468091
 C          5.4509401768        2.4857543782       -0.1369055473
 C          5.9178165827        1.2155103764        0.1964797158
 C          5.1566849819        0.1217509159       -0.1691742559
 H          5.4986473454       -0.8790822059        0.0454830322
 C          7.2187173797        1.0525721871        0.9200928205
 H          7.2008614814        1.6069327326        1.8575709944
 H          8.0350484401        1.4475509334        0.3164423813
 H          7.4190598773        0.0056589391        1.1347844479
 H          6.0191633272        3.3636220914        0.1304888824
 C          3.7075400876        3.9527378642       -1.2019529091
 H          2.9731836568        3.8412069488       -1.9942169099
 H          3.2194215953        4.4075084502       -0.3401607075
 H          4.5063225073        4.6136455591       -1.5301665305
 H          2.3152418104       -0.3345397203       -1.7350438149
 H          3.6774800889       -2.0237886186        0.2235371678
 H          3.2063199902       -2.7717956742       -1.2869046349
