90
 ** Energy = 0 Eh **
C      2.15932118181      -2.38121856543      0.111945335145
C      1.91193878992      -1.77500802707      1.34765817252
C      0.610592544334      -1.39425282527      1.68853107048
C      -0.460404121234      -1.72385976073      0.853272262516
C      -0.216074372114      -2.42708152605      -0.330497208482
C      1.09492240175      -2.69942947719      -0.737953165797
C      1.34785566185      -3.36872007131      -2.07105812792
C      1.48317868602      -4.88402725969      -1.90361925981
H      1.65749755967      -5.35896518267      -2.86685122685
H      0.576999610752      -5.30196857462      -1.47048873483
H      2.31192575396      -5.12584933464      -1.24214162158
H      2.25463037171      -2.97604941715      -2.53305037901
H      0.539997231079      -3.15644243679      -2.76903977515
C      -1.36872003906      -2.76507914378      -1.25636094706
N      -1.58889892065      -1.66161829809      -2.18369786216
C      -3.8888250286      -1.06699107961      -1.65196714287
N      -2.22687560758      0.524178299214      -2.30867924696
C      -4.83519903347      -0.065361845041      -1.55746225292
C      -4.44321300854      1.24224315956      -1.84584994639
C      -3.13446434939      1.48943636202      -2.22863463043
C      -2.57934789202      -0.726527943955      -2.01920967274
H      1.02875557614      1.22097552931      -3.3339873317
C      -2.6530771409      2.87369876014      -2.53650836023
H      -3.48540798431      3.53491507227      -2.76249104568
H      -2.11610870738      3.2641361229      -1.67233966011
H      -1.96355564888      2.84739179772      -3.37615447748
H      -5.15629150799      2.05010454648      -1.77944380505
C      -6.24769253299      -0.359301690954      -1.15648351563
H      -6.49514294644      0.172027910137      -0.237809253844
H      -3.85343983064      1.58194701838      0.759560372983
H      -6.39498491323      -1.42423284834      -0.994485586001
H      -0.725938999737      -1.2101863466      -2.46446671977
H      -1.16101003291      -3.67268811841      -1.82891510293
H      -4.15708381324      -2.0954033013      -1.46304024062
C      -1.86815406376      -1.37502987893      1.26476288615
C      -2.42991901808      -2.4287310471      2.22257411371
H      -2.45357395337      -3.40892100643      1.74829720095
H      -2.28020552095      -2.95315250842      -0.694108818078
H      -1.81590014833      -2.50673017628      3.11689127347
H      -2.51937046794      -1.29551353718      0.398639896748
H      -3.44252379981      -2.16483004381      2.5197545263
C      0.409904942094      -0.501297718165      2.89860609929
N      0.848407810579      0.850673875075      2.59560470317
C      0.0206526908211      1.77406950193      2.02316711907
N      -1.29166080567      1.56791731054      2.08575279609
C      -2.11489974582      2.48191697224      1.58266790939
C      -1.6593773499      3.65498382064      1.00777591047
C      -0.284903094679      3.89319820267      0.941867182769
C      0.564431650894      2.93739729573      1.4571292423
H      1.8165330186      0.938356260966      2.32058391565
C      0.968707918756      1.70475393888      -2.36020050808
H      0.0862567978051      5.11151308839      -0.768880353578
H      0.0811303616153      1.31905799849      -1.85737137896
H      1.63581711689      3.06547555436      1.42743132109
H      -2.35859870557      4.38053814055      0.619722005521
C      -3.57587093099      2.15473670736      1.64537016659
H      -0.298117914678      6.01650962179      0.691034964272
H      -3.78493315702      1.54751970031      2.52245216654
H      -4.17632434495      3.06058033804      1.67333602812
H      -1.88198546328      -0.391674466601      1.73459846221
H      0.976769283721      -0.86346273446      3.75910542634
H      -0.631946771252      -0.430504393596      3.19341895553
C      3.03006995067      -1.62524904564      2.35427287704
C      3.07611830549      -2.87362835667      3.24153370668
H      2.13625861724      -3.00016342981      3.77444667248
H      3.88009764606      -2.79214678596      3.9700854266
H      3.24094684109      -3.76610847265      2.64155992029
H      2.89049709792      -0.749591422486      2.98453232304
H      3.99231701742      -1.49811085151      1.8676171837
C      3.5982380631      -2.59242029286      -0.31580068679
N      4.34503621018      -1.34479671382      -0.427787216112
C      2.19901681083      1.42304189602      -1.55865928675
N      4.47763664841      0.891327373496      -0.0574101250434
C      2.92969370864      2.44982302519      -0.968516740965
C      4.89243859436      3.21317718583      0.407343232181
C      4.06695021241      2.13861810722      -0.236894107367
C      3.79110115515      -0.105442431404      -0.622816455414
H      4.10872771417      -3.22712895878      0.413564482496
C      2.64999648887      0.123979126589      -1.39438160655
H      5.71518049328      2.76327836104      0.955174075741
H      5.29335452682      3.88406557715      -0.35083548804
H      5.18786502844      -1.2802757695      0.124931628174
H      4.28608700341      3.80419519013      1.09278713784
C      0.236188388913      5.1475035276      0.310582946062
H      0.84151468864      2.77409854694      -2.50826555237
H      1.29794610391      5.27112871412      0.509118790353
H      2.62404587017      3.47833416637      -1.08547141798
H      2.1293088444      -0.691083378247      -1.86484721327
H      3.65379070275      -3.11320478009      -1.27383842796
H      -6.93662800621      -0.0233624287089      -1.9302902047
