117
input_96 ** Energy = -165.755280 Eh ** Charge = 0 ** Spin = 0 ** Curcuma 0.1 (0.0.76-11-g0d7ba0c)
C  0.979979    -1.930063    -1.117029
N  -0.739676    -3.480933    -0.340934
C  0.301118    -1.074740    -1.992340
N  -2.612171    -4.516281    0.406349
C  0.729159    0.247800    -2.139872
C  -0.998535    -5.863270    -0.736625
C  1.823730    0.718287    -1.408355
N  -1.114429    1.852027    -2.395174
C  2.502255    -0.144528    -0.543392
N  -1.968128    3.415234    -0.982678
C  2.054617    -1.458397    -0.357862
C  -0.418841    4.174260    -2.633354
C  0.535410    -3.371371    -1.011238
N  3.217249    0.898338    1.543097
C  -1.437514    -4.631958    -0.222410
N  1.905389    2.561143    2.416778
C  -3.383648    -5.585298    0.560763
C  3.980773    3.197802    1.417051
C  -3.014131    -6.835064    0.094518
C  -1.796837    -6.977417    -0.574076
C  -4.691504    -5.350238    1.253006
C  -1.379081    -8.318338    -1.094290
C  -0.874021    -1.596264    -2.785288
C  -0.434034    -2.140415    -4.148582
C  -0.023646    1.180862    -3.074034
C  -1.137939    3.150633    -1.995484
C  -2.090462    4.657501    -0.534796
C  -1.375668    5.711105    -1.082076
C  -0.531561    5.468293    -2.164884
C  -3.052430    4.877110    0.593224
C  0.226730    6.593865    -2.798626
C  2.277172    2.148638    -1.568252
C  3.294278    2.296048    -2.703718
C  3.680176    0.361024    0.271542
C  3.029175    2.229636    1.771402
C  1.677548    3.835173    2.742801
C  2.570225    4.839033    2.421855
C  3.749995    4.518242    1.744286
C  0.374547    4.110238    3.425364
C  4.731155    5.591802    1.394941
C  2.721507    -2.356390    0.658799
C  3.841603    -3.194110    0.034972
H  -1.057756    -2.715825    0.239263
H  -1.668981    1.252110    -1.800695
H  2.502980    0.323683    1.974533
H  -3.659327    -7.687899    0.238894
H  -1.484244    6.709593    -0.686989
H  2.360316    5.862100    2.691482
H  0.434733    -3.785097    -2.022145
H  1.287010    -3.976118    -0.495362
H  -5.403841    -4.924306    0.546963
H  -4.558363    -4.637223    2.062996
H  -5.099064    -6.278599    1.644080
H  -1.327936    -9.039117    -0.279092
H  -0.406208    -8.265847    -1.576872
H  -2.108530    -8.684745    -1.815634
H  -1.611975    -0.809928    -2.936947
H  -1.381115    -2.382162    -2.229336
H  0.042174    -1.366732    -4.747809
H  -1.296272    -2.517652    -4.693312
H  0.281093    -2.952020    -4.034730
H  0.647105    1.924585    -3.495635
H  -0.437975    0.616825    -3.913649
H  -3.959932    5.345399    0.213459
H  -2.620468    5.539132    1.341261
H  -3.321693    3.928537    1.047783
H  0.906537    7.042371    -2.074742
H  -0.460348    7.369648    -3.133404
H  0.804616    6.246402    -3.651569
H  2.720173    2.513958    -0.644579
H  1.418090    2.789726    -1.752288
H  2.876907    1.961096    -3.650787
H  4.182239    1.698024    -2.508552
H  3.594530    3.336952    -2.806257
H  4.386522    -0.447555    0.470419
H  4.223463    1.134957    -0.265659
H  0.402629    5.064138    3.944389
H  0.145432    3.316291    4.132566
H  -0.422699    4.141971    2.681747
H  5.607704    5.177329    0.903697
H  4.292837    -3.838275    0.786498
H  5.047718    6.118512    2.293945
H  3.464951    -3.816880    -0.773112
H  4.267420    6.319759    0.730202
H  1.973816    -3.004212    1.116245
H  3.136250    -1.766181    1.474250
H  4.617372    -2.553304    -0.379662
H  4.890371    2.904728    0.916450
H  0.200641    3.965792    -3.492147
H  -0.050133    -5.941691    -1.243501
C  -1.012758    -1.400861    2.655786
C  -0.209770    -0.192040    2.154920
C  -1.097589    0.932974    1.601328
C  -2.255956    0.398830    0.747551
C  -2.972153    -0.717277    1.513485
O  -2.062064    -1.759244    1.791951
O  0.562407    0.252435    3.241643
O  -0.338620    1.795534    0.785518
O  -3.173425    1.407091    0.456297
C  -4.130548    -1.313774    0.693097
O  -3.696098    -2.067245    -0.394745
H  0.973304    1.122864    3.023197
H  0.404254    2.145333    1.307185
H  -3.281390    -2.888470    -0.045832
H  0.427913    -0.549573    1.329938
H  -1.530234    1.487946    2.451120
H  -1.828906    -0.045665    -0.167224
H  -3.373544    -0.299782    2.450513
H  -2.708363    2.131271    -0.043508
H  -4.756896    -1.916812    1.364785
H  -4.718857    -0.479694    0.303391
O  -0.136143    -2.472311    2.728069
H  -1.426887    -1.157115    3.657126
C  -0.696705    -3.633381    3.313841
H  -1.044469    -3.423010    4.330919
H  -1.528377    -4.009631    2.713061
H  0.103575    -4.369662    3.344556
