173
 energy: -239.889203563409 gnorm: 0.000420361072 xtb: 6.6.0 (8843059)
C           -0.84716142757441        1.69492785035922       -0.22983165491844
C            0.53332947052520        1.85153529041266       -0.10065968399131
C            1.34388061596652        0.74635816565271        0.18097112600100
C            0.77503578549330       -0.52210568499555        0.30531560125919
C           -0.60134023907724       -0.69339199252285        0.12996180985002
C           -1.41101641079086        0.42269680138908       -0.08239264527073
C            1.19834766876849        3.18638147282596       -0.34070587920805
H            1.83359006772986        3.45385352013179        0.51338039900364
H            0.45819516589705        3.98286018487500       -0.44061171075766
N            2.05337326787450        3.12779657248023       -1.53358645216849
C            2.05806188804291        4.33708262409206       -2.32199843152933
H            2.30687538485943        5.17199383215182       -1.65857328400492
H            2.87735149085696        4.24317534982095       -3.04717193787292
C           -6.68508685779278        0.11363798832345       -3.53766332993383
C           -6.57965819490726        0.14331973887119       -2.14623056981116
N           -5.40735458182034        0.20263245913871       -1.54120323729417
C           -4.31571806491036        0.23362320008937       -2.31615122096835
N           -4.32476215884654        0.18347705072152       -3.66228086638441
C           -5.50613091141050        0.12363045656442       -4.26819458625800
H           -7.64635675105064        0.06787447116350       -4.02225550232656
C           -1.39874505565949        5.29001058970018       -4.69135441438334
C           -0.55225769257250        6.29369347211238       -4.25030852877362
C            0.54560489195986        5.98401982740279       -3.47014894525115
C            0.79766230816751        4.66775283209186       -3.09911637939635
C           -0.08092913336183        3.67605033739719       -3.51031267160041
C           -1.16901043093085        3.97310140875372       -4.32380957803019
H           -2.24066137203135        5.53456536185614       -5.32377945745630
H           -0.74255045094777        7.31963552698093       -4.53034203357608
H            1.21801021943018        6.76712613947141       -3.14902113146074
H            0.06695533453519        2.64984449093838       -3.20735258914522
C           -2.04007388349526        2.85245321634266       -4.83044149781468
H           -2.76763783197489        3.25688448744224       -5.55568299361998
H           -2.59983697399986        2.41275612820121       -3.99892689334180
N           -1.21381721853561        1.79968009766277       -5.40756759409186
C           -0.55021934869080        2.20067921575748       -6.64659094200511
H           -1.27645286503992        2.46244884531628       -7.43183271670247
H            0.01791384161183        3.10874395067841       -6.44268041825481
C            2.03663310964108       -0.96608085083933       -8.00143607561347
C            2.53771991461021        0.04239670913753       -7.17320290390574
C            0.35888001831514        1.09039358232847       -7.12368536922520
C           -0.15729882695734        0.06629747145224       -7.92269873152353
C            0.68858292859067       -0.95270811138651       -8.36969552000434
C           -5.48844021944525        0.07538418465299       -5.76347493672265
H           -6.46172263744350       -0.21194622474821       -6.15100637166599
H           -5.23181622659604        1.05935286548325       -6.15512565893247
H           -4.73335917141010       -0.62873479127062       -6.10619499343764
C           -7.79344804602923        0.10451024697416       -1.27452358536373
H           -8.35497443621583       -0.81012777525196       -1.45747312644899
H           -7.49538321785184        0.14322982678727       -0.23115396746518
H           -8.44225850628294        0.94944351131780       -1.49885279301509
N            3.94950479929586       -0.91645881887643       -5.50337433054075
H            3.47810630497077       -1.78401259795883       -5.75122389097988
C            5.24784666279557       -1.23400204818039       -4.92070058133465
H            5.98966540918449       -1.51553993691032       -5.68809967778729
H            5.61858584439042       -0.34293679549406       -4.40154451108339
C            0.14797924576063       -7.05477305032715       -9.28944383429730
C            0.44685975141778       -6.04229150672098      -10.19794963796556
N            0.33697910155279       -4.76559655541600       -9.87222414692754
C           -0.07561574112649       -4.48056406172723       -8.63025023528019
N           -0.38192130838626       -5.39141233151505       -7.69224919436910
C           -0.27396031457379       -6.67288690087370       -8.02167088894049
H            0.23602739291186       -8.09339476923700       -9.56322871289344
C            4.39337453576494       -4.49478394541298       -2.28613135393287
C            4.09741588247248       -3.19751188140254       -1.88959274426099
C            4.43423357313870       -2.14537720341420       -2.73125164233511
C            5.03494670734623       -2.37363444778087       -3.96123642913080
C            5.33267675750451       -3.67649429730112       -4.33590798276542
C            5.02055542007432       -4.73103467842081       -3.49658736385984
H            4.13673334742396       -5.32370901707147       -1.64207346208816
H            4.21675207790182       -1.13017556872739       -2.43443698358697
H            5.80977589838960       -3.86845630439117       -5.28704769241761
H            5.25717093475769       -5.74301142978234       -3.79290788064233
C            3.45007875055421       -2.92015436551572       -0.56108680783540
H            3.31296575849603       -3.85669624855425       -0.00695845287232
H            4.14719338071712       -2.29235689573600        0.03207747570227
N            2.14682256277121       -2.29117410298913       -0.69693058706586
C           -0.60735192171303       -7.67129374724855       -6.96014550631870
H            0.21252932074216       -7.72547920001523       -6.24419164705667
H           -1.49765968992228       -7.35717858029054       -6.42116100375696
H           -0.76072005476143       -8.65631320015325       -7.39242435332279
C            0.89832041391497       -6.35016220854428      -11.59056122081411
H            1.21085299388932       -5.43552074505646      -12.08615659057349
H            1.72247914955207       -7.06112263920455      -11.57460800169211
H            0.07813161708784       -6.79570962453409      -12.15245517895763
C            2.82882955597245        0.94940972036361        0.37268565127942
H            3.16318912930658        1.79404323625803       -0.22533979091084
H            3.38327919077295        0.07906988065149        0.02580611124889
C            3.15744768847481        1.20954021651538        1.84606112021272
H            2.84882990163898        0.37472459940539        2.47255121706068
H            4.22757322045286        1.36042718483621        1.97399846622612
H            2.63971379771484        2.09706237751462        2.20207999846118
C           -1.74200180712933        2.88202497048092       -0.50103519047935
H           -1.25839302752026        3.57871199711336       -1.18535255048274
H           -2.65705542921407        2.56732840004278       -0.99668971787426
C           -2.09372146193454        3.60579877594613        0.80103513474163
H           -2.61120126293894        2.93486558359300        1.48338111459014
H           -1.19429671432732        3.96045188193374        1.29940399316546
H           -2.73824700799472        4.45903277173557        0.59940544615923
C           -1.19330183608405       -2.08234577017790        0.16928130923001
H           -2.03068304881742       -2.15340502387623       -0.52571304699488
H           -0.44770632459079       -2.80113364794763       -0.16843057504977
C           -1.66672663857821       -2.45601406523551        1.57646464515613
H           -2.08335917572169       -3.46116128935639        1.58263620660199
H           -0.83904611717590       -2.42056840728064        2.28111455630188
H           -2.42900241870236       -1.76280304993958        1.92515008994948
C            3.96344529758114       -0.04552315083268       -6.67344645352898
N           -0.21330879837875       -3.19461540166579       -8.28788719067692
C            0.12752675003511       -2.09972774204694       -9.17675658483565
H            4.35117288438964        0.92865186048858       -6.37274396224125
H            4.63440028898843       -0.41585654399536       -7.46401447117497
H            0.83975860866234       -2.47461952298709       -9.91247621318588
H           -0.76209391003154       -1.79793107745973       -9.73578639312510
C            1.69235953615091        1.05118159791428       -6.70285937548523
C            2.20459402142362        2.07871324517169       -5.72402665255579
H            2.94186812859799        1.62206372148332       -5.06565487187166
H            1.38846552401331        2.41319708097504       -5.08841656897408
C            2.81887693748937        3.28863597273130       -6.43249041370680
H            3.16907771894937        4.01620355943472       -5.70314020953523
H            3.65855380538006        2.99201924202408       -7.05752043921521
H            2.08607986721246        3.77501565467487       -7.07276347547773
C           -1.61828927132682        0.05878002430421       -8.30852957196749
H           -2.21563551729584        0.56535564185242       -7.55359760450671
H           -1.98723678215614       -0.96541897087538       -8.34181727634942
C           -1.84477172205726        0.73942686628975       -9.66152975958882
H           -1.51684036767294        1.77640271832448       -9.62856538595909
H           -1.28338825089465        0.24166766603487      -10.44864153298430
H           -2.90069335878542        0.71911421103352       -9.92406916699173
C            2.93944896134196       -2.05837602941702       -8.52387892427411
H            3.74530522442923       -2.26408647169166       -7.82208004352871
H            2.38347307428406       -2.98789790118755       -8.62921299457966
C            3.54416940592843       -1.66278314149448       -9.87417600452136
H            4.18463813188368       -2.45780702345426      -10.25058520121758
H            2.76364956335724       -1.47310091250610      -10.60700705909052
H            4.13742622008447       -0.75547071824018       -9.77766391945523
H           -1.77959743429909        0.97386724367458       -5.59354042957071
N           -3.12207263590972        0.32441279138799       -1.73222475854935
C            1.66997354827736       -1.71203462591876        0.56030645559438
H            1.14424746590101       -2.49526162513291        1.11454120769995
H            2.51120152479720       -1.40772084707764        1.19886314138340
H           -0.39387470669513       -2.99540103838255       -7.31119146477513
H           -2.28211146556470        0.35037031971857       -2.31052832431686
C           -2.89745780646606        0.26520863160683       -0.30012266592737
H           -3.46582389228175        1.05542638136221        0.19881505364880
H           -3.28033715181652       -0.67896561121356        0.09179435762315
H            1.78477118148738        2.33392088780076       -2.10676184687452
H            2.17065840698810       -1.58196971673128       -1.42614243352190
C            0.88598329204668       -2.80738173789307       -4.64093805891153
C            0.76779526093799       -1.30827744182431       -4.31234872910525
C           -0.44227456748310       -1.11658766244279       -3.38894624341662
C           -1.72449155870911       -1.77132599293376       -3.96747579485951
C           -1.42568019250640       -3.18977039707036       -4.48028129392609
O           -0.28252786486517       -3.22470365019897       -5.30520298638911
O            1.88420320180161       -0.79913122848653       -3.64540996437447
O           -0.65517462973001        0.24471360834492       -3.12604009456576
O           -2.27262554411853       -0.96963535932377       -4.98714542236438
C           -2.58611635566061       -3.75358048751649       -5.31448599864283
O           -2.36922659191912       -5.07472457178044       -5.70032756805085
H            2.64479515056565       -0.76900086210815       -4.27239677801186
H           -0.68939372112013        0.73286699072724       -3.98087902842940
H           -1.58455202194079       -5.10377404739258       -6.29204558000059
H            0.59005096461053       -0.77771696663223       -5.25863221357647
H           -0.20306819736193       -1.57418001064856       -2.42342785519184
H           -2.45278835745683       -1.87277124151617       -3.15177951449382
H           -1.24970628617681       -3.83940471930295       -3.60662233341725
H           -3.02443043846816       -0.45867573869155       -4.58586157163446
H           -3.49586119630595       -3.74149742608968       -4.70783944375703
H           -2.72827376560341       -3.09844981782227       -6.18375608158258
O            1.96414035959374       -3.04475363405696       -5.47964489099493
H            1.00226407769335       -3.38069618229165       -3.69605463090109
C            2.21007358979555       -4.42491764669822       -5.69473611323259
H            2.43272449050332       -4.92265138268095       -4.74500701999396
H            1.34942722239876       -4.90155794370395       -6.16947596758128
H            3.07650566636181       -4.48226125802363       -6.34956565620417
