231
 ** Energy =   3.015478 Eh ** Charge = 0 ** Spin = 0 ** Curcuma 0.1 (0.0.108)
C  2.432448    -0.318173    -1.323302
C  2.141143    -1.629916    -0.909420
C  1.141501    -1.846305    0.046743
C  0.411720    -0.767607    0.562297
C  0.689500    0.533723    0.132635
C  1.677721    0.755863    -0.834951
C  1.917289    2.222221    -1.414437
C  2.946109    2.953858    -0.553732
C  -0.779628    -1.031147    1.633005
C  -0.209800    -0.997431    3.052771
C  2.913337    -2.893435    -1.559168
C  4.067701    -3.308064    -0.647306
C  -0.118805    1.746340    0.777278
N  -1.424003    1.859492    0.105736
C  0.804313    -3.308247    0.547430
N  -0.385449    -3.742403    -0.162677
C  3.625393    -0.053755    -2.335106
C  -2.185810    2.906608    0.715189
N  -3.139634    3.447740    0.042443
C  -4.320169    3.478464    0.561664
C  -4.452142    3.269866    1.864056
C  -3.361231    3.038203    2.584598
N  -2.218085    3.017633    1.995883
C  -3.451905    2.788605    4.044673
C  -5.513045    3.723940    -0.290940
N  3.098852    -0.080895    -3.699631
C  -0.700526    -5.101835    0.217851
C  -2.069719    -5.372145    -0.294090
C  -2.265328    -5.825447    -1.526149
C  -3.504192    -5.980925    -1.981362
C  -4.535977    -5.687164    -1.197890
C  -4.325381    -5.223204    0.025390
C  -3.100871    -5.069218    0.466959
C  4.228446    -0.051111    -4.628716
C  3.694955    -0.171397    -6.028961
C  3.665464    0.875920    -6.836684
C  3.169755    0.755956    -8.064288
C  2.699984    -0.421941    -8.480928
C  2.736151    -1.465516    -7.665983
C  3.235103    -1.335424    -6.449153
C  -5.459102    -4.809805    0.906998
C  3.141973    1.955218    -8.964547
C  2.179778    -2.790798    -8.076489
N  0.852715    -2.910716    -7.485572
C  -0.117941    -3.261213    -8.520565
C  -1.561602    -3.211463    -7.850653
C  -3.733420    -6.384127    -3.403315
N  -3.298483    -5.274222    -4.237947
C  -3.743956    -5.506783    -5.615398
C  -3.263017    -4.265778    -6.485947
C  -2.396035    -2.098793    -8.034025
C  -3.673530    -2.080908    -7.466077
C  -4.103906    -3.149833    -6.666843
C  -1.986913    -4.282415    -7.062894
C  -0.995219    -5.519048    -6.782342
C  -1.227522    -6.601770    -7.835214
C  -5.535648    -3.071245    -5.932917
C  -6.612628    -3.599753    -6.875047
C  -4.624475    -0.835987    -7.740907
N  -4.259345    0.244394    -6.811626
C  -5.132969    1.356652    -7.009255
C  -1.863848    -0.820168    -8.849759
C  -2.108425    -1.024222    -10.344180
N  -5.618782    1.621002    -8.176107
C  -5.904637    2.838175    -8.486090
C  -5.882357    3.769193    -7.542891
C  -5.570501    3.421045    -6.309855
N  -5.314604    2.189945    -6.045898
C  -5.510865    4.438731    -5.232735
C  -6.242723    3.183966    -9.895828
N  -5.423345    -3.322329    1.100697
N  2.435788    3.083642    -8.282851
C  -5.716867    -2.597641    -0.230141
C  -6.438608    -2.969678    2.133861
C  -7.072371    -2.936696    -0.820315
O  -8.097219    -2.290305    -0.470875
O  -7.157842    -3.734205    -1.641367
C  -8.328432    -1.201971    -1.353328
C  -9.725067    -1.322736    -1.921356
C  -6.404122    -1.491000    2.447865
O  -7.388200    -0.943742    2.672847
O  -5.316964    -0.825050    2.373973
C  -4.422924    -1.114881    3.464017
C  -5.095501    -0.827962    4.805002
C  2.637219    4.378354    -9.046530
C  0.955304    2.777450    -8.045291
C  2.194804    4.361158    -10.501142
O  2.872069    3.726255    -11.366909
O  1.384073    5.100288    -10.843239
C  2.039074    3.261318    -12.433901
C  2.672469    2.036745    -13.059386
C  0.152714    2.512007    -9.293349
O  0.164819    1.475874    -9.778696
O  -0.604327    3.404367    -9.753675
C  -1.947495    3.160155    -9.387489
C  -2.751197    4.396454    -9.680903
H  2.341097    2.165981    -2.544187
H  0.889435    2.850920    -1.400570
H  3.313376    2.175357    0.343370
H  3.897929    3.273123    -1.287492
H  2.399305    3.962513    -0.075123
H  -1.624622    -0.176493    1.560026
H  -1.281527    -2.112325    1.473249
H  1.016288    -0.804926    2.966501
H  -0.766845    -0.071261    3.668268
H  -0.454195    -2.093722    3.587368
H  3.389339    -2.636886    -2.624338
H  2.148217    -3.827888    -1.677747
H  3.947952    -4.523455    -0.408541
H  5.129780    -3.077600    -1.251156
H  3.992727    -2.636757    0.396850
H  -0.275234    1.496481    1.947132
H  0.456096    2.789567    0.657967
H  -1.296291    2.092455    -0.891489
H  1.679803    -4.085611    0.336543
H  0.565208    -3.270118    1.734540
H  -0.180818    -3.740050    -1.180515
H  4.118232    1.030407    -2.137893
H  4.461122    -0.904316    -2.198285
H  -5.429230    3.284877    2.325723
H  -4.486761    2.139982    4.261856
H  -2.441219    2.143159    4.377698
H  -3.486490    3.892313    4.617361
H  -6.218698    2.699651    -0.259109
H  -6.122896    4.701858    0.175951
H  -5.112784    3.955635    -1.445365
H  2.609264    -0.978245    -3.831769
H  -0.721528    -5.186699    1.417071
H  0.093175    -5.855537    -0.284054
H  -1.422409    -6.032811    -2.171613
H  -5.538798    -5.788157    -1.564909
H  -2.944160    -4.664520    1.456949
H  4.938646    -1.002396    -4.422881
H  4.811818    0.992751    -4.500548
H  4.039027    1.831632    -6.501870
H  2.283611    -0.528306    -9.470330
H  3.250412    -2.188487    -5.785022
H  -6.508676    -5.158987    0.441080
H  -5.254730    -5.325708    1.980890
H  4.296453    2.286308    -9.124182
H  2.615133    1.665281    -9.987088
H  2.133747    -2.872664    -9.276249
H  2.876318    -3.648255    -7.592244
H  0.599924    -1.980201    -7.111732
H  0.115434    -4.388488    -8.906359
H  -0.034045    -2.496964    -9.426047
H  -4.908251    -6.566400    -3.570072
H  -3.073984    -7.358728    -3.663343
H  -3.775646    -4.424277    -3.893535
H  -3.246202    -6.524755    -6.016075
H  -4.942666    -5.602807    -5.649672
H  0.152657    -5.190019    -6.864699
H  -1.205690    -5.991450    -5.687160
H  -2.141542    -6.215106    -8.584074
H  -1.543387    -7.649707    -7.245782
H  -0.165981    -6.752395    -8.466513
H  -5.571569    -3.742227    -4.946075
H  -5.796648    -1.922370    -5.647163
H  -7.489296    -2.724777    -6.982966
H  -6.076970    -3.835714    -7.971795
H  -7.080150    -4.636616    -6.373676
H  -4.451316    -0.474825    -8.886493
H  -5.774624    -1.104748    -7.573198
H  -4.349423    -0.072316    -5.824173
H  -2.438647    0.182741    -8.530191
H  -0.678754    -0.680966    -8.657699
H  -1.018565    -0.904215    -10.931176
H  -2.579872    -2.163992    -10.501091
H  -2.912072    -0.152706    -10.720301
H  -6.105638    4.800899    -7.774269
H  -5.246953    3.849020    -4.170018
H  -4.615678    5.250966    -5.528122
H  -6.619476    4.996932    -5.171993
H  -5.973450    4.383055    -10.083565
H  -5.556214    2.453430    -10.631984
H  -7.455507    2.967907    -10.059606
H  -5.703055    -1.410380    -0.046552
H  -4.882530    -2.917513    -1.043708
H  -7.540044    -3.266945    1.762527
H  -6.144255    -3.548654    3.154084
H  -8.257618    -0.179631    -0.724284
H  -7.540633    -1.240726    -2.263386
H  -9.998105    -2.533377    -2.002151
H  -10.501418    -0.739557    -1.144480
H  -9.726073    -0.787067    -3.042888
H  -4.100108    -2.274082    3.430366
H  -3.475090    -0.376839    3.368192
H  -5.717073    -1.847143    5.156202
H  -4.191916    -0.558573    5.616279
H  -5.863993    0.139346    4.662485
H  2.016323    5.244462    -8.482974
H  3.821103    4.610182    -9.052758
H  0.868044    1.792507    -7.358707
H  0.468766    3.740102    -7.503317
H  0.965652    2.935534    -12.007614
H  1.964258    4.121347    -13.273704
H  2.341514    1.048216    -12.380454
H  2.244693    1.942196    -14.223185
H  3.904746    2.196451    -13.045405
H  -2.381316    2.257947    -10.053076
H  -2.002143    2.936964    -8.210450
H  -3.484823    4.147648    -10.652463
H  -3.417699    4.664562    -8.669967
H  -1.951472    5.311315    -9.946574
C  -2.647811    -0.200109    -2.938060
C  -2.018487    -1.439009    -3.517387
C  -0.537348    -1.191195    -3.820407
C  -0.342194    0.104065    -4.616387
C  -1.117684    1.239525    -3.973684
O  -2.486980    0.887070    -3.840993
O  -2.133110    -2.483948    -2.577547
O  -0.020856    -2.277124    -4.561556
O  -0.744506    -0.079109    -5.957859
C  -1.001068    2.501702    -4.809689
O  -1.546707    3.584443    -4.083365
H  -1.789008    -3.342898    -2.972353
H  0.681105    -2.762802    -4.020088
H  -2.469431    3.802479    -4.433377
H  -2.550744    -1.729105    -4.443538
H  0.013329    -1.114058    -2.868232
H  0.717705    0.365221    -4.612192
H  -0.681750    1.440776    -2.991002
H  -1.738858    -0.141602    -6.026684
H  0.163504    2.727417    -5.016146
H  -1.635346    2.369538    -5.820404
O  -4.035092    -0.444632    -2.725574
H  -2.166147    0.021763    -1.967028
C  -4.728542    0.764871    -2.430872
H  -5.121793    1.248779    -3.503270
H  -5.691315    0.476185    -1.699724
H  -3.952648    1.541621    -1.848089
