231
 ** Energy =   3.027176 Eh ** Charge = 0 ** Spin = 0 ** Curcuma 0.1 (0.0.108)
C  2.474621    -0.349989    -1.396485
C  2.170932    -1.647380    -0.935898
C  1.140492    -1.831220    -0.000916
C  0.383203    -0.737775    0.443373
C  0.662056    0.545300    -0.035721
C  1.691618    0.738561    -0.976803
C  1.931017    2.182426    -1.603772
C  2.831253    3.000103    -0.682281
C  -0.848283    -0.973404    1.486905
C  -0.312374    -0.968753    2.923528
C  2.965303    -2.924343    -1.513086
C  4.140117    -3.235079    -0.595473
C  -0.198341    1.772803    0.516988
N  -1.505239    1.771864    -0.161970
C  0.788889    -3.278328    0.552103
N  -0.359764    -3.759691    -0.203572
C  3.699145    -0.120849    -2.402137
C  -2.330063    2.805244    0.356910
N  -3.350960    3.165106    -0.334477
C  -4.516381    3.056201    0.198138
C  -4.605658    2.954856    1.517031
C  -3.483284    2.955579    2.231009
N  -2.356304    3.037197    1.618373
C  -3.517065    2.847160    3.710525
C  -5.731823    3.028118    -0.652239
N  3.189556    -0.171360    -3.773034
C  -0.750281    -5.069176    0.278349
C  -2.161374    -5.275197    -0.168088
C  -2.430854    -5.683277    -1.402111
C  -3.689942    -5.788460    -1.806593
C  -4.678699    -5.491234    -0.967540
C  -4.396866    -5.072972    0.263978
C  -3.146917    -4.966031    0.652843
C  4.315788    -0.158034    -4.707148
C  3.750021    -0.258805    -6.106403
C  3.690814    0.806244    -6.888272
C  3.136648    0.719901    -8.097942
C  2.648917    -0.450582    -8.526782
C  2.725027    -1.520145    -7.738445
C  3.273186    -1.413345    -6.535931
C  -5.479214    -4.665574    1.221836
C  3.054682    1.955312    -8.957901
C  2.140289    -2.849271    -8.149135
N  0.824700    -2.952210    -7.529974
C  -0.168776    -3.366432    -8.514727
C  -1.600660    -3.245776    -7.817713
C  -3.984319    -6.167880    -3.233043
N  -3.448194    -5.121977    -4.092592
C  -3.855797    -5.390119    -5.480906
C  -3.326449    -4.192465    -6.393533
C  -2.395575    -2.109137    -8.026712
C  -3.664616    -2.023920    -7.435178
C  -4.128990    -3.056441    -6.604649
C  -2.054416    -4.270737    -6.978393
C  -1.095636    -5.516172    -6.647340
C  -1.359592    -6.649829    -7.641286
C  -5.559626    -2.907216    -5.868240
C  -6.664347    -3.373673    -6.815518
C  -4.560636    -0.741575    -7.709209
N  -4.116717    0.324779    -6.800786
C  -4.942927    1.473602    -6.967596
C  -1.832198    -0.873753    -8.900774
C  -2.150375    -1.095046    -10.378420
N  -5.532581    1.707452    -8.091569
C  -5.879191    2.909092    -8.395068
C  -5.770713    3.864402    -7.491274
C  -5.319180    3.561703    -6.288486
N  -5.016179    2.341295    -6.014768
C  -5.169123    4.619118    -5.257212
C  -6.400073    3.210687    -9.753874
N  -5.476862    -3.171434    1.369996
N  2.542567    3.101216    -8.139504
C  -5.867227    -2.476038    0.047590
C  -6.426895    -2.804642    2.451933
C  -7.302715    -2.744106    -0.399055
O  -8.135343    -1.798570    -0.414043
O  -7.603886    -3.765076    -0.825158
C  -8.344912    -1.339066    -1.750340
C  -9.753660    -1.685876    -2.187731
C  -6.357171    -1.324939    2.732064
O  -7.330374    -0.739836    2.902820
O  -5.247532    -0.698286    2.675881
C  -4.394061    -0.996995    3.799009
C  -5.123088    -0.731084    5.123669
C  2.726680    4.407194    -8.876976
C  1.097310    2.890500    -7.682882
C  2.130387    4.445571    -10.263702
O  2.781616    3.965099    -11.239525
O  1.213697    5.108289    -10.462227
C  1.905045    3.489957    -12.258865
C  2.695473    2.627414    -13.215096
C  0.084432    2.770928    -8.785531
O  -0.055110    1.772266    -9.329791
O  -0.696686    3.745166    -9.009010
C  -1.847417    3.356052    -9.764282
C  -2.737019    4.561715    -9.918088
H  2.465592    2.110133    -2.677761
H  0.872687    2.756666    -1.714338
H  2.973842    2.361138    0.375189
H  3.921071    3.166914    -1.255348
H  2.266542    4.090246    -0.474759
H  -1.671324    -0.105458    1.419365
H  -1.370848    -2.045357    1.292291
H  0.929326    -0.924687    2.868602
H  -0.770829    0.030505    3.505266
H  -0.700639    -2.017431    3.473174
H  3.408532    -2.714238    -2.605320
H  2.239131    -3.892093    -1.558070
H  4.034697    -4.415747    -0.224885
H  5.187551    -3.065492    -1.246002
H  4.082193    -2.454001    0.370394
H  -0.343096    1.596936    1.705775
H  0.319254    2.831682    0.319767
H  -1.392747    1.933196    -1.163619
H  1.691030    -4.056583    0.435629
H  0.479523    -3.183124    1.711317
H  -0.090206    -3.848975    -1.201276
H  4.200604    0.963738    -2.210869
H  4.519531    -0.977269    -2.248526
H  -5.570431    2.869904    1.996053
H  -4.509058    2.170878    4.026079
H  -2.463402    2.290656    4.072942
H  -3.596005    3.999650    4.171677
H  -6.281312    1.922250    -0.490141
H  -6.475735    3.956676    -0.289713
H  -5.369081    3.177566    -1.831357
H  2.702378    -1.062282    -3.894124
H  -0.727911    -5.087721    1.480285
H  -0.031943    -5.906667    -0.208682
H  -1.622692    -5.902093    -2.087773
H  -5.700861    -5.551505    -1.290313
H  -2.933683    -4.599021    1.645786
H  5.010491    -1.121810    -4.509466
H  4.918068    0.875824    -4.581975
H  4.076979    1.751877    -6.540438
H  2.184145    -0.529462    -9.499844
H  3.310904    -2.278413    -5.887957
H  -6.539739    -5.071393    0.857455
H  -5.169207    -5.137271    2.295324
H  4.188490    2.218729    -9.288650
H  2.352034    1.743539    -9.896189
H  2.072666    -2.929880    -9.347279
H  2.834034    -3.714690    -7.675529
H  0.575244    -2.009448    -7.205300
H  0.050182    -4.521056    -8.823095
H  -0.107931    -2.670299    -9.472293
H  -5.175694    -6.220839    -3.383937
H  -3.439262    -7.209992    -3.489838
H  -3.867934    -4.224438    -3.795068
H  -3.367784    -6.430627    -5.823621
H  -5.057099    -5.464722    -5.554240
H  0.060225    -5.213176    -6.751549
H  -1.311340    -5.922686    -5.526874
H  -2.241132    -6.267301    -8.428138
H  -1.733228    -7.648109    -6.999873
H  -0.294851    -6.883985    -8.241331
H  -5.643911    -3.581851    -4.888502
H  -5.753878    -1.745226    -5.573984
H  -7.499784    -2.457333    -6.912654
H  -6.144824    -3.624272    -7.916891
H  -7.180294    -4.392364    -6.323804
H  -4.401780    -0.399006    -8.865765
H  -5.713066    -0.948158    -7.505485
H  -4.173240    0.016890    -5.809434
H  -2.348313    0.157441    -8.580325
H  -0.634043    -0.780651    -8.773948
H  -1.075549    -1.195374    -10.995607
H  -2.819997    -2.137495    -10.473423
H  -2.796810    -0.108738    -10.774962
H  -6.044133    4.882324    -7.731707
H  -4.878029    4.064551    -4.184335
H  -4.258640    5.382029    -5.627670
H  -6.252385    5.224728    -5.169585
H  -5.868102    4.260246    -10.148565
H  -6.104189    2.253937    -10.492669
H  -7.632832    3.342357    -9.663059
H  -5.783956    -1.283908    0.209054
H  -5.136200    -2.842017    -0.834483
H  -7.551789    -3.091924    2.142534
H  -6.085348    -3.374752    3.462334
H  -8.226305    -0.141592    -1.768304
H  -7.570839    -1.887138    -2.493626
H  -9.905243    -2.913667    -2.060205
H  -10.540488    -1.060636    -1.459157
H  -9.876550    -1.341378    -3.377365
H  -4.062905    -2.153311    3.761104
H  -3.447006    -0.252601    3.747772
H  -5.839048    -1.716096    5.390008
H  -4.250872    -0.572366    5.996050
H  -5.808208    0.297592    4.993268
H  2.225834    5.287868    -8.223422
H  3.913429    4.572772    -9.015703
H  1.037252    1.875065    -7.042708
H  0.783440    3.851381    -7.021894
H  1.041714    2.814866    -11.763131
H  1.467273    4.425356    -12.879543
H  2.800969    1.495805    -12.710704
H  2.071591    2.582899    -14.290719
H  3.811377    3.156328    -13.366327
H  -1.519098    3.003388    -10.868983
H  -2.466797    2.517118    -9.166102
H  -3.502305    4.348653    -10.873482
H  -3.367635    4.702195    -8.858024
H  -2.008028    5.545479    -10.138500
C  -2.396579    -0.599531    -3.099117
C  -1.633582    -1.694820    -3.798475
C  -0.200339    -1.270796    -3.999156
C  -0.139999    0.068927    -4.726724
C  -0.984608    1.063705    -3.968330
O  -2.324750    0.599928    -3.861035
O  -1.666816    -2.852329    -2.997378
O  0.481726    -2.250555    -4.740610
O  -0.585062    -0.074116    -6.065548
C  -0.962058    2.435874    -4.626646
O  -1.458555    3.393764    -3.708470
H  -1.322051    -3.646584    -3.515737
H  1.043903    -2.825434    -4.127064
H  -2.457296    3.283817    -3.594617
H  -2.100749    -1.912912    -4.772761
H  0.277122    -1.171252    -3.017746
H  0.890830    0.427430    -4.742739
H  -0.548288    1.158446    -2.990431
H  -1.560220    0.109791    -6.149353
H  0.171892    2.720056    -4.883307
H  -1.676016    2.430947    -5.597711
O  -3.756956    -0.999279    -2.973780
H  -1.959253    -0.444645    -2.090175
C  -4.548147    0.048694    -2.423311
H  -4.729341    0.917581    -3.300107
H  -5.624979    -0.451029    -2.079677
H  -3.947681    0.521507    -1.442005
